LAMMPS (29 Aug 2024 - Update 1)

# System: Electrolyte with T* = 0.5, matching physical Bjerrum length/ion diameter ratio

#Define Pi and normalization constant
variable M_PI          equal 3.1415926535
variable e             equal (4*3.1415926535*55.26349406*25.2*2.16*0.001)^(-1/2)

# Physical parameters
# T* = sigma/l_bjerrum is approx 0.5 (matches water with l_bjerrum = 0.72 nm, sigma â‰ˆ 0.3 #nm)
variable t             equal 1.0       # 1.0 corresponds to T = 293K, kBT = 25,2 meV, physcial temperature of the system
variable e_lj          equal 10*$t      #was 40, the variable that dictates the well of the LJ potential, the strength of the WCA
variable e_lj          equal 10*1
variable dt            equal 0.0005
variable Z             equal 1
variable Ts            equal 0.5       # Reduced temperature T*
variable rhos          equal 0.4      # Reduced density

# RDF specific variables
variable r_max        equal 5.0
variable bins_ps      equal 32
variable bins         equal 5*32

#Number of ions per group
variable N_ion        equal 200

#diameter of the ions (sigma) and the cut_off length for the WCA potential (minimum of #LJ)
variable sigma_ii      equal 1.0       # Ion diameter in reduced units
variable c_ii          equal 2^(1/6)*1

#ion mass
variable m_i           equal 1.0     # 0.36 nm

#other variables: bjerrum length and the dielectric constant
variable l_bjerrum     equal 1/0.5
variable epsilon       equal 0.5/(1*1)

#Box size
variable L_box         equal (2*200/0.4)^(1/3)*1

#Coulomb interaction cutoff
variable c_coul        equal 2.5

# Units, atom style, boundary conditions, dielectric constant
units                 lj
atom_style            full
boundary              p p p
dielectric            0.5

#PARTICLE CREATION
region box            block 0 10 0 10 0.0 10
create_box            2 box
Created orthogonal box = (0 0 0) to (10 10 10)
mass *                1

create_atoms          1 random 200 4248389 NULL
Created 200 atoms
create_atoms          2 random 200 6238894 NULL
Created 200 atoms

set type 1 charge $(v_Z)
set type 1 charge 1
Setting atom values ...
  200 settings made for charge
set type 2 charge -$(v_Z)
set type 2 charge -1
Setting atom values ...
  200 settings made for charge

group cation type 1
200 atoms in group cation
group anion type 2
200 atoms in group anion

reset_timestep 0

# WCA and coulomb potential
pair_style            lj/cut/coul/long 2.5
pair_coeff            * * 10 1 1.12246204830937

#WCA approx
pair_modify shift yes

#Long range of Coulomb potential
kspace_style pppm 1.0e-4

# Random seed
variable seed1         equal 837603

#Give all particles random initial velocity
velocity all create 1.0 837603

# neighbor
neighbor              0.3 bin
neigh_modify          every 1 delay 1 check yes one 500 page 5000

# minimize
minimize 1.0e-6 1.0e-8 500 5000
PPPM initialization ...
  G vector (1/distance) = 1.259161
  grid = 40 40 40
  stencil order = 5
  estimated absolute RMS force accuracy = 0.00011100545
  estimated relative force accuracy = 0.00011100545
  3d grid and FFT values/proc = 103823 64000
Generated 0 of 1 mixed pair_coeff terms from geometric mixing rule
Step          Temp          E_pair         E_mol          TotEng         Press
0   1              1.0003518e+14  0              1.0003518e+14  1.6005629e+14
Loop time of 101.07 on 1 procs for 282 steps with 400 atoms

Minimization stats:
  Stopping criterion = energy tolerance
  Energy initial, next-to-last, final =
  Force two-norm initial, final = 1.2075956e+19 18.553503
  Force max component initial, final = 7.7780118e+18 4.7027788
  Final line search alpha, max atom move = 0.015225241 0.07160094
  Iterations, force evaluations = 282 1038

reset_timestep 0

# fixes, sets up NVT ensemble
fix mynvt all nvt temp 1.0 1.0 $(100*dt) tchain 30
fix mynvt all nvt temp 1.0 1.0 0.5 tchain 30

timestep              0.0005

# Compute RDF
compute rdf all rdf 160 1 1 1 2 2 2
fix rdf_avg all ave/time 100 10 1000 c_rdf[*] file rdf_T0.5_rho0.4.avg mode vector

#computes
compute pe all pe/atom

#thermodynamic quantities, outputs every 1000 steps with parameter monitoring
thermo               500
thermo_style         custom step temp etotal pe ke press atoms
thermo_modify norm yes

# dump pictures and movies
dump                 1 all custom 250 configuration_T0.5_rho0.4.dump id type x y z vx vy vz fx fy fz c_pe
dump_modify          1 format line "%d %d %.6f %.6f %.6f %.6f %.6f %.6f %.6f %.6f %.6f %.6f"
dump_modify          1 sort id

run 10000
PPPM initialization ...
  G vector (1/distance) = 1.259161
  grid = 40 40 40
  stencil order = 5
  estimated absolute RMS force accuracy = 0.00011100545
  estimated relative force accuracy = 0.00011100545
  3d grid and FFT values/proc = 103823 64000
Generated 0 of 1 mixed pair_coeff terms from geometric mixing rule
Step          Temp          TotEng         PotEng         KinEng         Press         Atoms
0   1              0.15509473    -1.3411553      1.49625        0.37120876           400
Averages over the last 11 of 21 rows, steps 5000 to 10000:
Temp TotEng PotEng KinEng Press Atoms
0.96349 0.594729 -0.846893 1.44162 1.14965 400
Loop time of 576.142 on 1 procs for 10000 steps with 400 atoms

write_restart restart_T0.5_rho0.4.restart
System init for write_restart ...
PPPM initialization ...
  G vector (1/distance) = 1.259161
  grid = 40 40 40
  stencil order = 5
  estimated absolute RMS force accuracy = 0.00011100545
  estimated relative force accuracy = 0.00011100545
  3d grid and FFT values/proc = 103823 64000
Generated 0 of 1 mixed pair_coeff terms from geometric mixing rule
