LAMMPS (29 Aug 2024 - Update 1)

# System: Electrolyte with T* = 0.5, matching physical Bjerrum length/ion diameter ratio

#variables
variable ind            equal 82

#Define Pi and normalization constant
variable M_PI          equal 3.1415926535
variable e             equal (4*3.1415926535*55.26349406*25.2*2.16*0.001)^(-1/2)

# Physical parameters
# T* = sigma/l_bjerrum is approx 0.5 (matches water with l_bjerrum = 0.72 nm, sigma ≈ 0.3 #nm)
variable t             equal 1.0       # 1.0 corresponds to T = 293K, kBT = 25,2 meV
variable e_lj          equal 40.0*$t
variable e_lj          equal 40.0*1
variable dt            equal 0.0005
variable Z             equal 1
variable Ts            equal 0.5       # Reduced temperature T*
variable rhos          equal 0.05      # Reduced density (why is that here?)

#Number of ions per group
variable N_ion         equal 1600

#diameter of the ions (sigma) and the cut_off length for the WCA potential (minimum of #LJ)
variable sigma_ii      equal 1.0       # Ion diameter in reduced units
variable c_ii          equal 2^(1/6)*1

#ion mass
variable m_i           equal 1.0     # 0.36 nm

#other variables: bjerrum length and the dielectric constant
variable l_bjerrum     equal 1/0.5
variable epsilon       equal 0.5/(1*1)

#Box size
variable L_box         equal 20*1

#Coulomb interaction cutoff
variable c_coul        equal 2.5

# Random seed
variable seed1         equal 837603

# Monitoring variables for physical parameters
variable check_T_star    equal 1/2

# Units, atom style, boundary conditions, dielectric constant
units                  lj
atom_style            full
boundary              p p p
dielectric            0.5

#PARTICLE CREATION
region box            block 0 20 0 20 0.0 20
create_box            2 box
Created orthogonal box = (0 0 0) to (20 20 20)
mass *                1

create_atoms          1 random 1600 4248389 NULL
Created 1600 atoms
create_atoms          2 random 1600 6238894 NULL
Created 1600 atoms

set type 1 charge $(v_Z)
set type 1 charge 1
Setting atom values ...
  1600 settings made for charge
set type 2 charge -$(v_Z)
set type 2 charge -1
Setting atom values ...
  1600 settings made for charge

group cation type 1
1600 atoms in group cation
group anion type 2
1600 atoms in group anion

reset_timestep 0

# WCA and coulomb potential
pair_style            lj/cut/coul/long 2.5
pair_coeff            * * 40 1 1.12246204830937

#WCA approx
pair_modify shift yes

#Long range of Coulomb potential
kspace_style pppm 1.0e-4

#Give all particles random initial velocity
velocity all create 1.0 837603

# neighbor
neighbor              0.3 bin
neigh_modify          every 1 delay 1 check yes one 500 page 5000

# minimize
minimize 1.0e-6 1.0e-8 500 5000
PPPM initialization ...
  G vector (1/distance) = 1.259161
  grid = 80 80 80
  stencil order = 5
  estimated absolute RMS force accuracy = 0.00011100545
  estimated relative force accuracy = 0.00011100545
  3d grid and FFT values/proc = 658503 512000
Generated 0 of 1 mixed pair_coeff terms from geometric mixing rule
Step          Temp          E_pair         E_mol          TotEng         Press
0   1              5.3704567e+11  0              5.3704567e+11  8.5927344e+11
Loop time of 440.425 on 1 procs for 271 steps with 3200 atoms

Minimization stats:
  Stopping criterion = energy tolerance
  Energy initial, next-to-last, final =
  Force two-norm initial, final = 1.8580648e+17 99.041328
  Force max component initial, final = 8.8848652e+16 6.5004079
  Final line search alpha, max atom move = 0.00031864928 0.0020713503
  Iterations, force evaluations = 271 1021

reset_timestep 0

# fixes, sets up NVT ensemble
fix                   mynvt all nvt temp 1.0 1.0 $(100*dt) tchain 30
fix                   mynvt all nvt temp 1.0 1.0 0.5 tchain 30

timestep              0.0005

# Compute RDF
compute rdf all rdf 100 1 1 1 2 2 2  # check g(++), g(--), g(+-)
fix rdf_avg all ave/time 1000 1 1000 c_rdf[*] file rdf_T0.5_rho0.05.avg mode vector

#computes
compute pe all pe/atom

#thermodynamic quantities, outputs every 1000 steps with parameter monitoring
thermo               1000
thermo_style         custom step temp etotal pe ke press atoms v_check_T_star

# dump pictures and movies
dump                 1 all custom 1000 configuration_T0.5_rho0.05.dump id type x y z vx vy vz fx fy fz c_pe
dump_modify          1 format line "%d %d %.6f %.6f %.6f %.6f %.6f %.6f %.6f %.6f %.6f %.6f"
dump_modify          1 sort id

run 30000
PPPM initialization ...
  G vector (1/distance) = 1.259161
  grid = 80 80 80
  stencil order = 5
  estimated absolute RMS force accuracy = 0.00011100545
  estimated relative force accuracy = 0.00011100545
  3d grid and FFT values/proc = 658503 512000
Generated 0 of 1 mixed pair_coeff terms from geometric mixing rule
Step          Temp          TotEng         PotEng         KinEng         Press         Atoms    v_check_T_star
0   1              0.20629205    -1.2932392      1.4995312      0.37937599          3200   0.5
Averages over the last 16 of 31 rows, steps 15000 to 30000:
Temp TotEng PotEng KinEng Press Atoms v_check_T_star
1.00126 0.655857 -0.845568 1.50142 1.34311 3200 0.5
Loop time of 12722.1 on 1 procs for 30000 steps with 3200 atoms

write_restart restart_T0.5_rho0.05.restart
System init for write_restart ...
PPPM initialization ...
  G vector (1/distance) = 1.259161
  grid = 80 80 80
  stencil order = 5
  estimated absolute RMS force accuracy = 0.00011100545
  estimated relative force accuracy = 0.00011100545
  3d grid and FFT values/proc = 658503 512000
Generated 0 of 1 mixed pair_coeff terms from geometric mixing rule
