LAMMPS (29 Aug 2024 - Update 1)

# System: Electrolyte with T* = 0.5, matching physical Bjerrum length/ion diameter ratio

#Define Pi and normalization constant
variable M_PI          equal 3.1415926535
variable e             equal (4*3.1415926535*55.26349406*25.2*2.16*0.001)^(-1/2)

# Physical parameters
# T* = sigma/l_bjerrum is approx 0.5 (matches water with l_bjerrum = 0.72 nm, sigma â‰ˆ 0.3 #nm)
variable t             equal 1.0       # 1.0 corresponds to T = 293K, kBT = 25,2 meV, physcial temperature of the system
variable e_lj          equal 20*$t      #was 40, the variable that dictates the well of the LJ potential, the strength of the WCA
variable e_lj          equal 20*1
variable dt            equal 0.0005
variable Z             equal 1
variable Ts            equal 0.5       # Reduced temperature T*
variable rhos          equal 0.4      # Reduced density

# RDF specific variables
variable r_max        equal 5.0
variable bins_ps      equal 32
variable bins         equal 5*32

#diameter of the ions (sigma) and the cut_off length for the WCA potential (minimum of #LJ)
variable sigma_ii      equal 1.0       # Ion diameter in reduced units
variable c_ii          equal 2^(1/6)*1

#ion mass
variable m_i           equal 1.0     # 0.36 nm

#other variables: bjerrum length and the dielectric constant
variable l_bjerrum     equal 1/0.5
variable epsilon       equal 0.5/(1*1)
variable debye         equal (8*3.1415926535*2*0.4)^(-0.5)
#Box size
variable L_box         equal 10*1
#Number of ions per group
variable N_ion        equal (0.4*(10)^3)/2

#Coulomb interaction cutoff
variable c_coul        equal 2.5

# Units, atom style, boundary conditions, dielectric constant
units                 lj
atom_style            full
boundary              p p p
dielectric            0.5

#PARTICLE CREATION
region box            block 0 10 0 10 0.0 10
create_box            2 box
Created orthogonal box = (0 0 0) to (10 10 10)
mass *                1

create_atoms          1 random 200 4248389 NULL
Created 200 atoms
create_atoms          2 random 200 6238894 NULL
Created 200 atoms

set type 1 charge $(v_Z)
set type 1 charge 1
Setting atom values ...
  200 settings made for charge
set type 2 charge -$(v_Z)
set type 2 charge -1
Setting atom values ...
  200 settings made for charge

group cation type 1
200 atoms in group cation
group anion type 2
200 atoms in group anion

reset_timestep 0

# WCA and coulomb potential
pair_style            lj/cut/coul/long 2.5
pair_coeff            * * 20 1 1.12246204830937

#WCA approx
pair_modify shift yes

#Long range of Coulomb potential
kspace_style pppm 1.0e-4

# Random seed
variable seed1         equal 837603

#Give all particles random initial velocity
velocity all create 1.0 837603

# neighbor
neighbor              0.3 bin
neigh_modify          every 1 delay 1 check yes one 500 page 5000

# minimize
minimize 1.0e-6 1.0e-8 500 5000
PPPM initialization ...
  G vector (1/distance) = 1.259161
  grid = 40 40 40
  stencil order = 5
  estimated absolute RMS force accuracy = 0.00011100545
  estimated relative force accuracy = 0.00011100545
  3d grid and FFT values/proc = 103823 64000
Generated 0 of 1 mixed pair_coeff terms from geometric mixing rule
Step          Temp          E_pair         E_mol          TotEng         Press
0   1              2.0007036e+14  0              2.0007036e+14  3.2011259e+14
Loop time of 162.167 on 1 procs for 263 steps with 400 atoms

Minimization stats:
  Stopping criterion = energy tolerance
  Energy initial, next-to-last, final =
  Force two-norm initial, final = 2.4151912e+19 33.563959
  Force max component initial, final = 1.5556024e+19 4.003632
  Final line search alpha, max atom move = 0.0012395703 0.0049627832
  Iterations, force evaluations = 263 1175

reset_timestep 0

# fixes, sets up NVT ensemble
fix mynvt all nvt temp 1.0 1.0 $(100*dt) tchain 3
fix mynvt all nvt temp 1.0 1.0 0.5 tchain 3

timestep              0.0005

# Compute RDF
compute rdf all rdf 160 1 1 1 2 2 2
fix rdf_avg all ave/time 10 100 1000 c_rdf[*] file rdf.avg mode vector

# Computes
compute peratom all pe/atom
compute keatom all ke/atom
# Calculate total PE and KE directly
compute pe all reduce sum c_peratom
compute ke all reduce sum c_keatom
compute temp all temp
compute press all pressure thermo_temp

# Create a variable for total energy (simpler approach)
variable etot equal c_pe+c_ke

# Average values over the last 500 timesteps
fix avg_all all ave/time 1 500 500 c_temp c_press v_etot file avg_all.txt mode scalar

# Ensure proper MPI communication and output
comm_modify mode single

# Thermodynamic quantities
thermo               500
thermo_style         custom step temp press c_pe c_ke v_etot v_debye
# Modified thermo settings to ensure clean output
thermo_modify        norm yes lost warn flush yes                     format float %14.8f format 3 %14.4f                     format 4 %14.8f format 5 %14.8f                     line one

# Make sure dump is also properly synchronized
dump                 1 all custom 250 configuration_T0.5_rho0.4.dump id type x y z vx vy vz fx fy fz c_peratom
dump_modify          1 format line "%d %d %.6f %.6f %.6f %.6f %.6f %.6f %.6f %.6f %.6f %.6f"
dump_modify          1 sort id flush yes

# Run with proper setup for parallel execution
fix                 mynvt all nvt temp 1.0 1.0 $(100*dt) tchain 3
fix                 mynvt all nvt temp 1.0 1.0 0.050000000000000002776 tchain 3

# Make sure minimization is complete before running
run                 0
PPPM initialization ...
  G vector (1/distance) = 1.259161
  grid = 40 40 40
  stencil order = 5
  estimated absolute RMS force accuracy = 0.00011100545
  estimated relative force accuracy = 0.00011100545
  3d grid and FFT values/proc = 103823 64000
Generated 0 of 1 mixed pair_coeff terms from geometric mixing rule
Step          Temp          Press           c_pe           c_ke          v_etot        v_debye
0      1.00000000         0.3948    -1.33484192     1.49625000    64.56323131     0.22301551
Loop time of 3.969e-06 on 1 procs for 0 steps with 400 atoms

run                 10000
PPPM initialization ...
  G vector (1/distance) = 1.259161
  grid = 40 40 40
  stencil order = 5
  estimated absolute RMS force accuracy = 0.00011100545
  estimated relative force accuracy = 0.00011100545
  3d grid and FFT values/proc = 103823 64000
Generated 0 of 1 mixed pair_coeff terms from geometric mixing rule
Step          Temp          Press           c_pe           c_ke          v_etot        v_debye
0      1.00000000         0.3948    -1.33484192     1.49625000    64.56323131     0.22301551
Averages over the last 11 of 21 rows, steps 5000 to 10000:
Temp Press c_pe c_ke v_etot v_debye
1.00554 1.33695 -0.813843 1.50454 276.278 0.223016
Loop time of 1603.42 on 1 procs for 10000 steps with 400 atoms

write_restart       restart_T0.5_rho0.4.restart
System init for write_restart ...
PPPM initialization ...
  G vector (1/distance) = 1.259161
  grid = 40 40 40
  stencil order = 5
  estimated absolute RMS force accuracy = 0.00011100545
  estimated relative force accuracy = 0.00011100545
  3d grid and FFT values/proc = 103823 64000
Generated 0 of 1 mixed pair_coeff terms from geometric mixing rule
